Version 4
SHEET 1 880 680
WIRE 112 -112 -240 -112
WIRE 112 -16 112 -112
WIRE 576 -16 272 -16
WIRE 272 64 272 -16
WIRE -240 80 -240 -112
WIRE 112 144 112 64
WIRE 400 144 272 144
WIRE 480 144 400 144
WIRE 400 160 400 144
WIRE 480 160 480 144
WIRE 480 240 400 240
WIRE 400 256 400 240
WIRE 400 256 272 256
WIRE -240 272 -240 160
WIRE 112 320 112 224
WIRE 112 320 -16 320
WIRE 112 368 112 320
WIRE 272 416 272 336
WIRE 592 416 272 416
FLAG -16 320 0
FLAG -240 272 0
SYMBOL ind2 96 -32 R0
SYMATTR InstName L1
SYMATTR Value 3.06m
SYMATTR Type ind
SYMATTR SpiceLine Rser=3
SYMBOL ind2 96 352 R0
SYMATTR InstName L2
SYMATTR Value 8.1”
SYMATTR Type ind
SYMATTR SpiceLine Rser=0.17
SYMBOL ind2 288 160 R180
WINDOW 0 36 80 Left 2
WINDOW 3 36 40 Left 2
SYMATTR InstName L3
SYMATTR Value 12.3”
SYMATTR Type ind
SYMBOL ind2 288 352 R180
WINDOW 0 36 80 Left 2
WINDOW 3 36 40 Left 2
SYMATTR InstName L4
SYMATTR Value 8.7”
SYMATTR Type ind
SYMBOL res 384 144 R0
SYMATTR InstName R1
SYMATTR Value 0.22
SYMBOL res 464 144 R0
SYMATTR InstName R2
SYMATTR Value 0.22
SYMBOL diode 576 0 R270
WINDOW 0 32 32 VTop 2
WINDOW 3 0 32 VBottom 2
SYMATTR InstName D1
SYMATTR Value 1N914
SYMBOL diode 592 432 R270
WINDOW 0 32 32 VTop 2
WINDOW 3 0 32 VBottom 2
SYMATTR InstName D2
SYMATTR Value 1N914
SYMBOL res 96 128 R0
SYMATTR InstName R3
SYMATTR Value 3.3
SYMBOL voltage -240 64 R0
WINDOW 123 0 0 Left 0
WINDOW 39 0 0 Left 0
SYMATTR InstName V1
SYMATTR Value SINE(220 220 10k)
TEXT 120 -152 Left 2 !K1 L1 L2 L3 L4 1
TEXT -272 472 Left 2 !.tran 1m
